reduced_networks/ieee34/51pct/dss/Shunts.dss
! Kron-equivalent grounded shunts
new Reactor.sh_2 phases=3 bus1=800.1.2.3 bus2=800.0.0.0 rmatrix=[0.1054256557835998 | 0.01575540006490351 0.101348407626652 | 0.01641897437109502 0.01551182601058157 0.1031453738653683] xmatrix=[-534359.8647590326 | -176488.6150661505 -546474.8243191189 | -131126.9837019394 -105350.3964063155 -541324.9931172029]
new Reactor.sh_3 phases=3 bus1=806.1.2.3 bus2=806.0.0.0 rmatrix=[0.002181893379886907 | 0.0003436429295571526 0.002163609711562687 | 0.0003479074136144885 0.0003379396994091855 0.002169064159753097] xmatrix=[-63029.32023994589 | -20817.35272919406 -64458.31483172571 | -15466.81491791868 -12426.39066246691 -63850.87661736306]
new Reactor.sh_4 phases=3 bus1=808.1.2.3 bus2=808.0.0.0 rmatrix=[0.00147549579021379 | 0.004568675530030437 0.01414631677582455 | 0.0008807693785180112 0.002727168025028083 0.0005257540577884425] xmatrix=[-32550.97071642659 | -9429.498088217748 -29197.25470008536 | -7819.769714765102 -5628.69978149886 -33288.99071204494]
new Reactor.sh_5 phases=3 bus1=812.1.2.3 bus2=812.0.0.0 rmatrix=[2.824214451022655e-08 | -2.738354304337383e-09 -2.818113573127996e-08 | 1.793947788370641e-08 1.750998078638702e-08 3.983851827801595e-08] xmatrix=[-34256.90080614501 | -11314.38499504352 -35033.56990844153 | -8406.328231866113 -6753.835225740335 -34703.42275865295]
new Reactor.sh_6 phases=3 bus1=814.1.2.3 bus2=814.0.0.0 rmatrix=[-3.572090149614656e-08 | 3.163936515722992e-07 8.867649464511459e-07 | 8.572874595916203e-07 8.393526923388327e-07 3.684182970818448e-06] xmatrix=[-77466.91695504362 | -25585.80905383869 -79223.2393174585 | -19009.66858461904 -15272.79994052971 -78476.66034856328]
new Reactor.sh_7 phases=3 bus1=814r.1.2.3 bus2=814r.0.0.0 rmatrix=[1.010704735923175 | 1.012792392960121 -0.8925504370528472 | 1.416753409011653 2.347449379934792 -5.136390196506285] xmatrix=[-7444997.565739522 | -2396780.455384513 -7603503.08016989 | -1786936.507756589 -1437484.667263352 -7536225.235880206]
new Reactor.sh_8 phases=3 bus1=816.1.2.3 bus2=816.0.0.0 rmatrix=[0.5666313043623054 | 0.1824136609893779 0.05862844929729238 | 0.1360086752789056 0.04385562638366303 0.03245966134906464] xmatrix=[-41036.02496735198 | -13210.78746909041 -211870.0182833717 | -9849.389316465211 -29372.82740258122 -218351.1037864326]
new Reactor.sh_9 phases=3 bus1=824.1.2.3 bus2=824.0.0.0 rmatrix=[0.1291242062274763 | 0.01090761393824561 0.1010741972924999 | 0.01537191301505567 0.01158151466306133 0.1283782245767519] xmatrix=[-74444.26338704112 | -20513.03644564593 -65075.23401606466 | -17432.18870037515 -12302.78901498465 -76146.92230775028]
new Reactor.sh_10 phases=1 bus1=820.1 bus2=820.0 rmatrix=[0.01845555213272417] xmatrix=[-39298.83095437601]
new Reactor.sh_11 phases=1 bus1=822.1 bus2=822.0 rmatrix=[0] xmatrix=[-181907.2977819384]
new Reactor.sh_12 phases=3 bus1=830.1.2.3 bus2=830.0.0.0 rmatrix=[0.1369208119988858 | 0.2043462627305008 0.7062868742079356 | 0.04583958502410191 0.1269555038076109 0.09826277164491765] xmatrix=[-38848.4982652899 | -7415.915285154791 -23526.15071932705 | -8681.878015742477 -4447.725715988535 -40489.9102810987]
new Reactor.sh_13 phases=3 bus1=832.1.2.3 bus2=832.0.0.0 rmatrix=[0.6607221611692219 | 0.09516586634046714 0.5324243505295858 | 0.08910031831902132 0.06797539411838047 0.5297199042113595] xmatrix=[-191849.9565734017 | -61762.47907822671 -223440.4487410448 | -46047.39464045645 -40513.68013067909 -222815.7174188916]
new Reactor.sh_14 phases=3 bus1=834.1.2.3 bus2=834.0.0.0 rmatrix=[6679.058795632631 | 3065.597355326763 4869.150665527763 | 3137.939005463925 2254.661831169035 7230.250480105415] xmatrix=[-57774.61620941878 | -11471.76297541901 -49664.5581726423 | -9484.86276517485 -5855.260553809221 -62057.58061526299]
new Reactor.sh_15 phases=3 bus1=852r.1.2.3 bus2=852r.0.0.0 rmatrix=[-1613.14973640656 | -519.3246323103217 -167.1872533864104 | -387.1876811781223 -124.6481313087247 -92.93266276189274] xmatrix=[-238238663.0208311 | -76696665.70785883 -243312183.1929621 | -57181967.31436713 -45999607.37219939 -241160674.4288212]
new Reactor.sh_16 phases=3 bus1=888.1.2.3 bus2=888.0.0.0 rmatrix=[7.325669333966002e-06 | -5.040781206077913e-07 -9.82273788571212e-06 | 3.553412433123191e-06 3.582489443638137e-07 9.550487204898714e-06] xmatrix=[-218095.7804246676 | -72032.77492640969 -223040.4266196278 | -53518.69763797957 -42998.13846310216 -220938.5522795104]
new Reactor.sh_17 phases=3 bus1=852.1.2.3 bus2=852.0.0.0 rmatrix=[0.009319242869847911 | 0.02219491533896028 0.07388112617758522 | 0.004388069259033845 0.0135742972911664 0.005064771634602068] xmatrix=[-63677.98705585567 | -20192.73859880048 -64059.0937712996 | -15245.09911125945 -12110.69612273632 -64528.58585706419]
new Reactor.sh_18 phases=3 bus1=890.1.2.3 bus2=890.0.0.0 rmatrix=[-2.167197329567855e-11 | -1.957092041461112e-11 -3.20323667296514e-11 | -2.337985998957555e-11 -3.455704008545044e-11 6.266485517260922e-12] xmatrix=[-218095.7804221805 | -72032.77492272455 -223040.426609716 | -53518.6976363976 -42998.13846060462 -220938.5522763621]
